taxonomy_feeders/R1-12.47-1.glm
// $Id: R1-12.47-1.glm 1132 2008-11-18 22:36:10Z dchassin $ 
//*********************************************

clock { 
	 timezone PST+8PDT;
	 timestamp '2000-01-01 0:00:00';
}

//*********************************************
// modules
module powerflow;


object fuse:2160 {
	name R1-12-47-1_fuse_1;
	phases "BN";
	from node:1724;
	to node:1741;
	current_limit 3000.0;
	status CLOSED;
}

object fuse:2169 {
	name R1-12-47-1_fuse_2;
	phases "AN";
	from node:1421;
	to node:1795;
	current_limit 3000.0;
	status CLOSED;
}

object fuse:2175 {
	name R1-12-47-1_fuse_3;
	phases "CN";
	from node:1517;
	to node:2097;
	current_limit 3000.0;
	status CLOSED;
}

object fuse:2179 {
	name R1-12-47-1_fuse_4;
	phases "AN";
	from node:1486;
	to node:2110;
	current_limit 3000.0;
	status CLOSED;
}

object fuse:2188 {
	name R1-12-47-1_fuse_5;
	phases "AN";
	from node:1558;
	to node:1422;
	current_limit 3000.0;
	status CLOSED;
}

object fuse:2191 {
	name R1-12-47-1_fuse_6;
	phases "AN";
	from node:1163;
	to node:1439;
	current_limit 3000.0;
	status CLOSED;
}

object fuse:2197 {
	name R1-12-47-1_fuse_7;
	phases "AN";
	from node:1226;
	to node:1965;
	current_limit 3000.0;
	status CLOSED;
}

object fuse:2212 {
	name R1-12-47-1_fuse_8;
	phases "AN";
	from node:1385;
	to node:1849;
	current_limit 3000.0;
	status CLOSED;
}

object fuse:2217 {
	name R1-12-47-1_fuse_9;
	phases "AN";
	from node:1370;
	to node:1644;
	current_limit 3000.0;
	status CLOSED;
}

object fuse:2218 {
	name R1-12-47-1_fuse_10;
	phases "AN";
	from node:1897;
	to node:1196;
	current_limit 3000.0;
	status CLOSED;
}

object fuse:2221 {
	name R1-12-47-1_fuse_11;
	phases "AN";
	from node:1897;
	to node:1794;
	current_limit 3000.0;
	status CLOSED;
}

object fuse:2222 {
	name R1-12-47-1_fuse_12;
	phases "AN";
	from node:1691;
	to node:1687;
	current_limit 3000.0;
	status CLOSED;
}

object fuse:2240 {
	name R1-12-47-1_fuse_13;
	phases "AN";
	from node:2050;
	to node:1571;
	current_limit 3000.0;
	status CLOSED;
}

object fuse:2250 {
	name R1-12-47-1_fuse_14;
	phases "AN";
	from node:1903;
	to node:1704;
	current_limit 3000.0;
	status CLOSED;
}

object fuse:2253 {
	name R1-12-47-1_fuse_15;
	phases "AN";
	from node:1389;
	to node:2085;
	current_limit 3000.0;
	status CLOSED;
}

object fuse:2257 {
	name R1-12-47-1_fuse_16;
	phases "BN";
	from node:1968;
	to node:1971;
	current_limit 3000.0;
	status CLOSED;
}

object fuse:2259 {
	name R1-12-47-1_fuse_17;
	phases "CN";
	from node:1351;
	to node:1759;
	current_limit 3000.0;
	status CLOSED;
}

object fuse:2260 {
	name R1-12-47-1_fuse_18;
	phases "AN";
	from node:2116;
	to node:2089;
	current_limit 3000.0;
	status CLOSED;
}

object fuse:2270 {
	name R1-12-47-1_fuse_19;
	phases "AN";
	from node:1358;
	to node:1616;
	current_limit 3000.0;
	status CLOSED;
}

object fuse:2275 {
	name R1-12-47-1_fuse_20;
	phases "AN";
	from node:1707;
	to node:1178;
	current_limit 3000.0;
	status CLOSED;
}

object fuse:2277 {
	name R1-12-47-1_fuse_21;
	phases "AN";
	from node:1271;
	to node:1466;
	current_limit 3000.0;
	status CLOSED;
}

object fuse:2282 {
	name R1-12-47-1_fuse_22;
	phases "AN";
	from node:1848;
	to node:1167;
	current_limit 3000.0;
	status CLOSED;
}

object fuse:2287 {
	name R1-12-47-1_fuse_23;
	phases "CN";
	from node:2016;
	to node:2108;
	current_limit 3000.0;
	status CLOSED;
}

object fuse:2288 {
	name R1-12-47-1_fuse_24;
	phases "AN";
	from node:1495;
	to node:1682;
	current_limit 3000.0;
	status CLOSED;
}

object fuse:2299 {
	name R1-12-47-1_fuse_25;
	phases "AN";
	from node:1189;
	to node:1450;
	current_limit 3000.0;
	status CLOSED;
}

object fuse:2301 {
	name R1-12-47-1_fuse_26;
	phases "AN";
	from node:1588;
	to node:1222;
	current_limit 3000.0;
	status CLOSED;
}

object fuse:2316 {
	name R1-12-47-1_fuse_27;
	phases "CN";
	from node:1317;
	to node:1253;
	current_limit 3000.0;
	status CLOSED;
}

object fuse:2317 {
	name R1-12-47-1_fuse_28;
	phases "ABCN";
	from node:1359;
	to node:1184;
	current_limit 3000.0;
	status CLOSED;
}

object fuse:2318 {
	name R1-12-47-1_fuse_29;
	phases "AN";
	from node:1963;
	to node:1169;
	current_limit 3000.0;
	status CLOSED;
}

object fuse:2320 {
	name R1-12-47-1_fuse_30;
	phases "AN";
	from node:1766;
	to node:1168;
	current_limit 3000.0;
	status CLOSED;
}

object fuse:2327 {
	name R1-12-47-1_fuse_31;
	phases "CN";
	from node:1624;
	to node:1323;
	current_limit 3000.0;
	status CLOSED;
}

object fuse:2336 {
	name R1-12-47-1_fuse_32;
	phases "BN";
	from node:1667;
	to node:1783;
	current_limit 3000.0;
	status CLOSED;
}

object fuse:2337 {
	name R1-12-47-1_fuse_33;
	phases "BN";
	from node:1624;
	to node:1499;
	current_limit 3000.0;
	status CLOSED;
}

object fuse:2351 {
	name R1-12-47-1_fuse_34;
	phases "BN";
	from node:1951;
	to node:1776;
	current_limit 3000.0;
	status CLOSED;
}

object fuse:2353 {
	name R1-12-47-1_fuse_35;
	phases "AN";
	from node:1650;
	to node:2041;
	current_limit 3000.0;
	status CLOSED;
}

object fuse:2357 {
	name R1-12-47-1_fuse_36;
	phases "BN";
	from node:2027;
	to node:1394;
	current_limit 3000.0;
	status CLOSED;
}

object fuse:2359 {
	name R1-12-47-1_fuse_37;
	phases "AN";
	from node:1902;
	to node:1861;
	current_limit 3000.0;
	status CLOSED;
}

object fuse:2363 {
	name R1-12-47-1_fuse_38;
	phases "ABCN";
	from node:1865;
	to node:1630;
	current_limit 3000.0;
	status CLOSED;
}

object fuse:2364 {
	name R1-12-47-1_fuse_39;
	phases "AN";
	from node:1478;
	to node:1633;
	current_limit 3000.0;
	status CLOSED;
}

object fuse:2368 {
	name R1-12-47-1_fuse_40;
	phases "CN";
	from node:1509;
	to node:1413;
	current_limit 3000.0;
	status CLOSED;
}

object fuse:2369 {
	name R1-12-47-1_fuse_41;
	phases "AN";
	from node:1954;
	to node:1787;
	current_limit 3000.0;
	status CLOSED;
}

object fuse:2371 {
	name R1-12-47-1_fuse_42;
	phases "AN";
	from node:1433;
	to node:1752;
	current_limit 3000.0;
	status CLOSED;
}

object fuse:2374 {
	name R1-12-47-1_fuse_43;
	phases "AN";
	from node:1752;
	to node:2000;
	current_limit 3000.0;
	status CLOSED;
}

object fuse:2376 {
	name R1-12-47-1_fuse_44;
	phases "AN";
	from node:1805;
	to node:1888;
	current_limit 3000.0;
	status CLOSED;
}

object fuse:2380 {
	name R1-12-47-1_fuse_45;
	phases "AN";
	from node:1891;
	to node:1399;
	current_limit 3000.0;
	status CLOSED;
}

object fuse:2382 {
	name R1-12-47-1_fuse_46;
	phases "CN";
	from node:1676;
	to node:1934;
	current_limit 3000.0;
	status CLOSED;
}

object fuse:2385 {
	name R1-12-47-1_fuse_47;
	phases "AN";
	from node:2042;
	to node:1181;
	current_limit 3000.0;
	status CLOSED;
}

object fuse:2388 {
	name R1-12-47-1_fuse_48;
	phases "CN";
	from node:1186;
	to node:1573;
	current_limit 3000.0;
	status CLOSED;
}

object fuse:2390 {
	name R1-12-47-1_fuse_49;
	phases "CN";
	from node:1950;
	to node:1352;
	current_limit 3000.0;
	status CLOSED;
}

object fuse:2391 {
	name R1-12-47-1_fuse_50;
	phases "AN";
	from node:1304;
	to node:1807;
	current_limit 3000.0;
	status CLOSED;
}

object fuse:2393 {
	name R1-12-47-1_fuse_51;
	phases "ABCN";
	from node:1254;
	to node:2053;
	current_limit 3000.0;
	status CLOSED;
}

object fuse:2416 {
	name R1-12-47-1_fuse_52;
	phases "ABCN";
	from node:1887;
	to node:1802;
	current_limit 3000.0;
	status CLOSED;
}

object fuse:2424 {
	name R1-12-47-1_fuse_53;
	phases "BN";
	from node:1559;
	to node:1996;
	current_limit 3000.0;
	status CLOSED;
}

object fuse:2427 {
	name R1-12-47-1_fuse_54;
	phases "AN";
	from node:1750;
	to node:1527;
	current_limit 3000.0;
	status CLOSED;
}

object fuse:2436 {
	name R1-12-47-1_fuse_55;
	phases "ABCN";
	from node:1379;
	to node:1947;
	current_limit 3000.0;
	status CLOSED;
}

object fuse:2444 {
	name R1-12-47-1_fuse_56;
	phases "CN";
	from node:1304;
	to node:1777;
	current_limit 3000.0;
	status CLOSED;
}

object fuse:2449 {
	name R1-12-47-1_fuse_57;
	phases "AN";
	from node:1590;
	to node:1692;
	current_limit 3000.0;
	status CLOSED;
}

object fuse:2451 {
	name R1-12-47-1_fuse_58;
	phases "AN";
	from node:1692;
	to node:1357;
	current_limit 3000.0;
	status CLOSED;
}

object fuse:2454 {
	name R1-12-47-1_fuse_59;
	phases "CN";
	from node:1852;
	to node:1443;
	current_limit 3000.0;
	status CLOSED;
}

object fuse:2464 {
	name R1-12-47-1_fuse_60;
	phases "AN";
	from node:1192;
	to node:1656;
	current_limit 3000.0;
	status CLOSED;
}

object fuse:2468 {
	name R1-12-47-1_fuse_61;
	phases "CN";
	from node:1954;
	to node:1715;
	current_limit 3000.0;
	status CLOSED;
}

object fuse:2477 {
	name R1-12-47-1_fuse_62;
	phases "AN";
	from node:1247;
	to node:1631;
	current_limit 3000.0;
	status CLOSED;
}

object fuse:2480 {
	name R1-12-47-1_fuse_63;
	phases "ABCN";
	from node:1192;
	to node:1228;
	current_limit 3000.0;
	status CLOSED;
}

object fuse:2487 {
	name R1-12-47-1_fuse_64;
	phases "CN";
	from node:1173;
	to node:1683;
	current_limit 3000.0;
	status CLOSED;
}

object fuse:2510 {
	name R1-12-47-1_fuse_65;
	phases "AN";
	from node:1364;
	to node:1570;
	current_limit 3000.0;
	status CLOSED;
}

object fuse:2520 {
	name R1-12-47-1_fuse_66;
	phases "BN";
	from node:1427;
	to node:1739;
	current_limit 3000.0;
	status CLOSED;
}

object fuse:2527 {
	name R1-12-47-1_fuse_67;
	phases "AN";
	from node:2110;
	to node:2038;
	current_limit 3000.0;
	status CLOSED;
}

object fuse:2533 {
	name R1-12-47-1_fuse_68;
	phases "AN";
	from node:2051;
	to node:1458;
	current_limit 3000.0;
	status CLOSED;
}

object fuse:2537 {
	name R1-12-47-1_fuse_69;
	phases "AN";
	from node:2071;
	to node:1980;
	current_limit 3000.0;
	status CLOSED;
}

object fuse:2539 {
	name R1-12-47-1_fuse_70;
	phases "BN";
	from node:1724;
	to node:2068;
	current_limit 3000.0;
	status CLOSED;
}

object fuse:2544 {
	name R1-12-47-1_fuse_71;
	phases "BN";
	from node:1681;
	to node:1526;
	current_limit 3000.0;
	status CLOSED;
}

object fuse:2549 {
	name R1-12-47-1_fuse_72;
	phases "BN";
	from node:2078;
	to node:1923;
	current_limit 3000.0;
	status CLOSED;
}

object fuse:2551 {
	name R1-12-47-1_fuse_73;
	phases "BN";
	from node:1347;
	to node:2078;
	current_limit 3000.0;
	status CLOSED;
}

object fuse:2561 {
	name R1-12-47-1_fuse_74;
	phases "AN";
	from node:1487;
	to node:1755;
	current_limit 3000.0;
	status CLOSED;
}

object fuse:2572 {
	name R1-12-47-1_fuse_75;
	phases "CN";
	from node:1487;
	to node:2007;
	current_limit 3000.0;
	status CLOSED;
}

object fuse:2580 {
	name R1-12-47-1_fuse_76;
	phases "CN";
	from node:1779;
	to node:1870;
	current_limit 3000.0;
	status CLOSED;
}

object fuse:2582 {
	name R1-12-47-1_fuse_77;
	phases "AN";
	from node:1398;
	to node:1410;
	current_limit 3000.0;
	status CLOSED;
}

object fuse:2585 {
	name R1-12-47-1_fuse_78;
	phases "BN";
	from node:1243;
	to node:1230;
	current_limit 3000.0;
	status CLOSED;
}

object fuse:2590 {
	name R1-12-47-1_fuse_79;
	phases "CN";
	from node:2037;
	to node:1873;
	current_limit 3000.0;
	status CLOSED;
}

object fuse:2593 {
	name R1-12-47-1_fuse_80;
	phases "CN";
	from node:1873;
	to node:1461;
	current_limit 3000.0;
	status CLOSED;
}

object fuse:2597 {
	name R1-12-47-1_fuse_81;
	phases "AN";
	from node:1217;
	to node:2090;
	current_limit 3000.0;
	status CLOSED;
}

object fuse:2602 {
	name R1-12-47-1_fuse_82;
	phases "AN";
	from node:1474;
	to node:1462;
	current_limit 3000.0;
	status CLOSED;
}

object fuse:2607 {
	name R1-12-47-1_fuse_83;
	phases "CN";
	from node:1622;
	to node:2086;
	current_limit 3000.0;
	status CLOSED;
}

object fuse:2610 {
	name R1-12-47-1_fuse_84;
	phases "AN";
	from node:1645;
	to node:1884;
	current_limit 3000.0;
	status CLOSED;
}

object fuse:2617 {
	name R1-12-47-1_fuse_85;
	phases "BN";
	from node:1459;
	to node:1775;
	current_limit 3000.0;
	status CLOSED;
}

object fuse:2621 {
	name R1-12-47-1_fuse_86;
	phases "CN";
	from node:1279;
	to node:2008;
	current_limit 3000.0;
	status CLOSED;
}

object fuse:2627 {
	name R1-12-47-1_fuse_87;
	phases "BN";
	from node:1612;
	to node:1912;
	current_limit 3000.0;
	status CLOSED;
}

object fuse:2631 {
	name R1-12-47-1_fuse_88;
	phases "CN";
	from node:1696;
	to node:1672;
	current_limit 3000.0;
	status CLOSED;
}

object fuse:2632 {
	name R1-12-47-1_fuse_89;
	phases "AN";
	from node:1207;
	to node:1816;
	current_limit 3000.0;
	status CLOSED;
}

object fuse:2635 {
	name R1-12-47-1_fuse_90;
	phases "AN";
	from node:1799;
	to node:1668;
	current_limit 3000.0;
	status CLOSED;
}

object fuse:2638 {
	name R1-12-47-1_fuse_91;
	phases "BN";
	from node:1771;
	to node:1489;
	current_limit 3000.0;
	status CLOSED;
}

object fuse:2644 {
	name R1-12-47-1_fuse_92;
	phases "CN";
	from node:1771;
	to node:1857;
	current_limit 3000.0;
	status CLOSED;
}

object fuse:2646 {
	name R1-12-47-1_fuse_93;
	phases "BN";
	from node:1771;
	to node:1638;
	current_limit 3000.0;
	status CLOSED;
}

object fuse:2648 {
	name R1-12-47-1_fuse_94;
	phases "AN";
	from node:1800;
	to node:1327;
	current_limit 3000.0;
	status CLOSED;
}

object fuse:2652 {
	name R1-12-47-1_fuse_95;
	phases "CN";
	from node:1195;
	to node:1958;
	current_limit 3000.0;
	status CLOSED;
}

object fuse:2653 {
	name R1-12-47-1_fuse_96;
	phases "CN";
	from node:1195;
	to node:1405;
	current_limit 3000.0;
	status CLOSED;
}

object fuse:2658 {
	name R1-12-47-1_fuse_97;
	phases "AN";
	from node:1311;
	to node:1261;
	current_limit 3000.0;
	status CLOSED;
}

object fuse:2665 {
	name R1-12-47-1_fuse_98;
	phases "ABCN";
	from node:1744;
	to node:1604;
	current_limit 3000.0;
	status CLOSED;
}

object fuse:2666 {
	name R1-12-47-1_fuse_99;
	phases "AN";
	from node:1604;
	to node:1392;
	current_limit 3000.0;
	status CLOSED;
}

object fuse:2669 {
	name R1-12-47-1_fuse_100;
	phases "AN";
	from node:1434;
	to node:1625;
	current_limit 3000.0;
	status CLOSED;
}

object fuse:2673 {
	name R1-12-47-1_fuse_101;
	phases "AN";
	from node:1340;
	to node:1791;
	current_limit 3000.0;
	status CLOSED;
}

object fuse:2675 {
	name R1-12-47-1_fuse_102;
	phases "AN";
	from node:1962;
	to node:1663;
	current_limit 3000.0;
	status CLOSED;
}

object fuse:2683 {
	name R1-12-47-1_fuse_103;
	phases "ABCN";
	from node:1446;
	to node:1249;
	current_limit 3000.0;
	status CLOSED;
}

object fuse:2688 {
	name R1-12-47-1_fuse_104;
	phases "BN";
	from node:1846;
	to node:1172;
	current_limit 3000.0;
	status CLOSED;
}

object fuse:2690 {
	name R1-12-47-1_fuse_105;
	phases "AN";
	from node:1942;
	to node:1572;
	current_limit 3000.0;
	status CLOSED;
}

object fuse:2701 {
	name R1-12-47-1_fuse_106;
	phases "ABCN";
	from node:1744;
	to node:1895;
	current_limit 3000.0;
	status CLOSED;
}

object fuse:2702 {
	name R1-12-47-1_fuse_107;
	phases "AN";
	from node:1204;
	to node:1966;
	current_limit 3000.0;
	status CLOSED;
}

object fuse:2710 {
	name R1-12-47-1_fuse_108;
	phases "BN";
	from node:2004;
	to node:1726;
	current_limit 3000.0;
	status CLOSED;
}

object fuse:2712 {
	name R1-12-47-1_fuse_109;
	phases "CN";
	from node:2098;
	to node:1929;
	current_limit 3000.0;
	status CLOSED;
}

object fuse:2713 {
	name R1-12-47-1_fuse_110;
	phases "AN";
	from node:2045;
	to node:1955;
	current_limit 3000.0;
	status CLOSED;
}

object fuse:2715 {
	name R1-12-47-1_fuse_111;
	phases "BN";
	from node:1363;
	to node:1914;
	current_limit 3000.0;
	status CLOSED;
}

object fuse:2722 {
	name R1-12-47-1_fuse_112;
	phases "AN";
	from node:1414;
	to node:1639;
	current_limit 3000.0;
	status CLOSED;
}

object fuse:2727 {
	name R1-12-47-1_fuse_113;
	phases "CN";
	from node:2044;
	to node:1581;
	current_limit 3000.0;
	status CLOSED;
}

object fuse:2728 {
	name R1-12-47-1_fuse_114;
	phases "AN";
	from node:2044;
	to node:1569;
	current_limit 3000.0;
	status CLOSED;
}

object fuse:2734 {
	name R1-12-47-1_fuse_115;
	phases "AN";
	from node:1998;
	to node:1565;
	current_limit 3000.0;
	status CLOSED;
}

object fuse:2736 {
	name R1-12-47-1_fuse_116;
	phases "CN";
	from node:1786;
	to node:2011;
	current_limit 3000.0;
	status CLOSED;
}

object fuse:2739 {
	name R1-12-47-1_fuse_117;
	phases "AN";
	from node:1414;
	to node:2035;
	current_limit 3000.0;
	status CLOSED;
}

object fuse:2740 {
	name R1-12-47-1_fuse_118;
	phases "AN";
	from node:1307;
	to node:1485;
	current_limit 3000.0;
	status CLOSED;
}

object fuse:2744 {
	name R1-12-47-1_fuse_119;
	phases "CN";
	from node:1810;
	to node:1782;
	current_limit 3000.0;
	status CLOSED;
}

object fuse:2750 {
	name R1-12-47-1_fuse_120;
	phases "AN";
	from node:1438;
	to node:1202;
	current_limit 3000.0;
	status CLOSED;
}

object fuse:2753 {
	name R1-12-47-1_fuse_121;
	phases "CN";
	from node:1232;
	to node:2105;
	current_limit 3000.0;
	status CLOSED;
}

object fuse:2759 {
	name R1-12-47-1_fuse_122;
	phases "CN";
	from node:1718;
	to node:1721;
	current_limit 3000.0;
	status CLOSED;
}


object line_configuration:2126 {
	conductor_A underground_line_conductor:43;
	conductor_N underground_line_conductor:43;
	spacing line_spacing:2125;
}

object line_configuration:2128 {
	conductor_B underground_line_conductor:43;
	conductor_N underground_line_conductor:43;
	spacing line_spacing:2127;
}

object line_configuration:2129 {
	conductor_A overhead_line_conductor:19;
	conductor_N overhead_line_conductor:19;
	spacing line_spacing:2125;
}

object line_configuration:2131 {
	conductor_A overhead_line_conductor:19;
	conductor_B overhead_line_conductor:19;
	conductor_C overhead_line_conductor:19;
	conductor_N overhead_line_conductor:19;
	spacing line_spacing:2130;
}

object line_configuration:2133 {
	conductor_C underground_line_conductor:43;
	conductor_N underground_line_conductor:43;
	spacing line_spacing:2132;
}

object line_configuration:2134 {
	conductor_C overhead_line_conductor:19;
	conductor_N overhead_line_conductor:19;
	spacing line_spacing:2132;
}

object line_configuration:2135 {
	conductor_A overhead_line_conductor:29;
	conductor_B overhead_line_conductor:29;
	conductor_C overhead_line_conductor:29;
	conductor_N overhead_line_conductor:29;
	spacing line_spacing:2130;
}

object line_configuration:2136 {
	conductor_A overhead_line_conductor:15;
	conductor_N overhead_line_conductor:15;
	spacing line_spacing:2125;
}

object line_configuration:2137 {
	conductor_C overhead_line_conductor:16;
	conductor_N overhead_line_conductor:16;
	spacing line_spacing:2132;
}

object line_configuration:2138 {
	conductor_A underground_line_conductor:44;
	conductor_B underground_line_conductor:44;
	conductor_C underground_line_conductor:44;
	conductor_N underground_line_conductor:44;
	spacing line_spacing:2130;
}

object line_configuration:2139 {
	conductor_A underground_line_conductor:48;
	conductor_B underground_line_conductor:48;
	conductor_C underground_line_conductor:48;
	conductor_N underground_line_conductor:48;
	spacing line_spacing:2130;
}

object line_configuration:2140 {
	conductor_A overhead_line_conductor:13;
	conductor_N overhead_line_conductor:13;
	spacing line_spacing:2125;
}

object line_configuration:2141 {
	conductor_B overhead_line_conductor:19;
	conductor_N overhead_line_conductor:19;
	spacing line_spacing:2127;
}

object line_configuration:2142 {
	conductor_A overhead_line_conductor:16;
	conductor_N overhead_line_conductor:16;
	spacing line_spacing:2125;
}

object line_configuration:2143 {
	conductor_C overhead_line_conductor:13;
	conductor_N overhead_line_conductor:13;
	spacing line_spacing:2132;
}

object line_configuration:2145 {
	conductor_A underground_line_conductor:43;
	conductor_C underground_line_conductor:43;
	conductor_N underground_line_conductor:43;
	spacing line_spacing:2144;
}

object line_configuration:2146 {
	conductor_A overhead_line_conductor:38;
	conductor_B overhead_line_conductor:38;
	conductor_C overhead_line_conductor:38;
	conductor_N overhead_line_conductor:38;
	spacing line_spacing:2130;
}

object line_configuration:2147 {
	conductor_B overhead_line_conductor:13;
	conductor_N overhead_line_conductor:13;
	spacing line_spacing:2127;
}

object line_configuration:2148 {
	conductor_B overhead_line_conductor:15;
	conductor_N overhead_line_conductor:15;
	spacing line_spacing:2127;
}


object line_spacing:2125 {
	distance_AN 51.6 in;
}

object line_spacing:2127 {
	distance_BN 51.6 in;
}

object line_spacing:2130 {
	distance_AB 57.6 in;
	distance_BC 57.6 in;
	distance_AC 57.6 in;
	distance_AN 51.6 in;
	distance_BN 51.6 in;
	distance_CN 51.6 in;
}

object line_spacing:2132 {
	distance_CN 51.6 in;
}

object line_spacing:2144 {
	distance_AC 57.6 in;
	distance_AN 51.6 in;
	distance_CN 51.6 in;
}


object load {
	name R1-12-47-1_load_1;
	parent R1-12-47-1_meter_1;
	phases "ABCN";
	nominal_voltage 7216.878;
	voltage_A 7216.878+0.0j;
	voltage_B -3608.439-6250.000j;
	voltage_C -3608.439+6250.000j;
	constant_power_A 7958.563+8857.390j;
	constant_power_B 32165.110+12556.873j;
	constant_power_C 43757.131+16911.772j;
	load_class "C";
}


object meter:645 {
	name R1-12-47-1_meter_1;
	phases "ABCN";
	nominal_voltage 7216.878;
	voltage_A 7216.878+0.0j;
	voltage_B -3608.439-6250.000j;
	voltage_C -3608.439+6250.000j;
}

// Meter at feeder
object meter:1920 {
	name R1-12-47-1_meter_2;
	phases "ABCN";
	nominal_voltage 7216.878;
	voltage_A 7216.878+0.0j;
	voltage_B -3608.439-6250.000j;
	voltage_C -3608.439+6250.000j;
}


object node:1159 {
	name R1-12-47-1_node_1;
	phases "CN";
	nominal_voltage 7216.878;
	voltage_C -3608.439+6250.000j;
}

object node:1162 {
	name R1-12-47-1_node_2;
	phases "BN";
	nominal_voltage 7216.878;
	voltage_B -3608.439-6250.000j;
}

object node:1161 {
	name R1-12-47-1_node_3;
	phases "AN";
	nominal_voltage 7216.878;
	voltage_A 7216.878+0.0j;
}

object node:1163 {
	name R1-12-47-1_node_4;
	phases "ABCN";
	nominal_voltage 7216.878;
	voltage_A 7216.878+0.0j;
	voltage_B -3608.439-6250.000j;
	voltage_C -3608.439+6250.000j;
}

object node:1166 {
	name R1-12-47-1_node_5;
	phases "ABCN";
	nominal_voltage 7216.878;
	voltage_A 7216.878+0.0j;
	voltage_B -3608.439-6250.000j;
	voltage_C -3608.439+6250.000j;
}

object node:1167 {
	name R1-12-47-1_node_6;
	phases "AN";
	nominal_voltage 7216.878;
	voltage_A 7216.878+0.0j;
}

object node:1168 {
	name R1-12-47-1_node_7;
	phases "AN";
	nominal_voltage 7216.878;
	voltage_A 7216.878+0.0j;
}

object node:1169 {
	name R1-12-47-1_node_8;
	phases "AN";
	nominal_voltage 7216.878;
	voltage_A 7216.878+0.0j;
}

object node:1170 {
	name R1-12-47-1_node_9;
	phases "CN";
	nominal_voltage 7216.878;
	voltage_C -3608.439+6250.000j;
}

object node:1171 {
	name R1-12-47-1_node_10;
	phases "CN";
	nominal_voltage 7216.878;
	voltage_C -3608.439+6250.000j;
}

object node:1172 {
	name R1-12-47-1_node_11;
	phases "BN";
	nominal_voltage 7216.878;
	voltage_B -3608.439-6250.000j;
}

object node:1173 {
	name R1-12-47-1_node_12;
	phases "ABCN";
	nominal_voltage 7216.878;
	voltage_A 7216.878+0.0j;
	voltage_B -3608.439-6250.000j;
	voltage_C -3608.439+6250.000j;
}

object node:1176 {
	name R1-12-47-1_node_13;
	phases "ABCN";
	nominal_voltage 7216.878;
	voltage_A 7216.878+0.0j;
	voltage_B -3608.439-6250.000j;
	voltage_C -3608.439+6250.000j;
}

object node:1177 {
	name R1-12-47-1_node_14;
	phases "CN";
	nominal_voltage 7216.878;
	voltage_C -3608.439+6250.000j;
}

object node:1178 {
	name R1-12-47-1_node_15;
	phases "AN";
	nominal_voltage 7216.878;
	voltage_A 7216.878+0.0j;
}

object node:1180 {
	name R1-12-47-1_node_16;
	phases "ABCN";
	nominal_voltage 7216.878;
	voltage_A 7216.878+0.0j;
	voltage_B -3608.439-6250.000j;
	voltage_C -3608.439+6250.000j;
}

object node:1181 {
	name R1-12-47-1_node_17;
	phases "AN";
	nominal_voltage 7216.878;
	voltage_A 7216.878+0.0j;
}

object node:1182 {
	name R1-12-47-1_node_18;
	phases "BN";
	nominal_voltage 7216.878;
	voltage_B -3608.439-6250.000j;
}

object node:1184 {
	name R1-12-47-1_node_19;
	phases "ABCN";
	nominal_voltage 7216.878;
	voltage_A 7216.878+0.0j;
	voltage_B -3608.439-6250.000j;
	voltage_C -3608.439+6250.000j;
}

object node:1185 {
	name R1-12-47-1_node_20;
	phases "BN";
	nominal_voltage 7216.878;
	voltage_B -3608.439-6250.000j;
}

object node:1186 {
	name R1-12-47-1_node_21;
	phases "ABCN";
	nominal_voltage 7216.878;
	voltage_A 7216.878+0.0j;
	voltage_B -3608.439-6250.000j;
	voltage_C -3608.439+6250.000j;
}

object node:1187 {
	name R1-12-47-1_node_22;
	phases "CN";
	nominal_voltage 7216.878;
	voltage_C -3608.439+6250.000j;
}

object node:1188 {
	name R1-12-47-1_node_23;
	phases "AN";
	nominal_voltage 7216.878;
	voltage_A 7216.878+0.0j;
}

object node:1189 {
	name R1-12-47-1_node_24;
	phases "ABCN";
	nominal_voltage 7216.878;
	voltage_A 7216.878+0.0j;
	voltage_B -3608.439-6250.000j;
	voltage_C -3608.439+6250.000j;
}

object node:1191 {
	name R1-12-47-1_node_25;
	phases "AN";
	nominal_voltage 7216.878;
	voltage_A 7216.878+0.0j;
}

object node:1192 {
	name R1-12-47-1_node_26;
	phases "ABCN";
	nominal_voltage 7216.878;
	voltage_A 7216.878+0.0j;
	voltage_B -3608.439-6250.000j;
	voltage_C -3608.439+6250.000j;
}

object node:1193 {
	name R1-12-47-1_node_27;
	phases "AN";
	nominal_voltage 7216.878;
	voltage_A 7216.878+0.0j;
}

object node:1194 {
	name R1-12-47-1_node_28;
	phases "ABCN";
	nominal_voltage 7216.878;
	voltage_A 7216.878+0.0j;
	voltage_B -3608.439-6250.000j;
	voltage_C -3608.439+6250.000j;
}

object node:1195 {
	name R1-12-47-1_node_29;
	phases "CN";
	nominal_voltage 7216.878;
	voltage_C -3608.439+6250.000j;
}

object node:1196 {
	name R1-12-47-1_node_30;
	phases "AN";
	nominal_voltage 7216.878;
	voltage_A 7216.878+0.0j;
}

object node:1197 {
	name R1-12-47-1_node_31;
	phases "ABCN";
	nominal_voltage 7216.878;
	voltage_A 7216.878+0.0j;
	voltage_B -3608.439-6250.000j;
	voltage_C -3608.439+6250.000j;
}

object node:1199 {
	name R1-12-47-1_node_32;
	phases "AN";
	nominal_voltage 7216.878;
	voltage_A 7216.878+0.0j;
}

object node:1200 {
	name R1-12-47-1_node_33;
	phases "BN";
	nominal_voltage 7216.878;
	voltage_B -3608.439-6250.000j;
}

object node:1202 {
	name R1-12-47-1_node_34;
	phases "AN";
	nominal_voltage 7216.878;
	voltage_A 7216.878+0.0j;
}

object node:1205 {
	name R1-12-47-1_node_35;
	phases "CN";
	nominal_voltage 7216.878;
	voltage_C -3608.439+6250.000j;
}

object node:1204 {
	name R1-12-47-1_node_36;
	phases "ABCN";
	nominal_voltage 7216.878;
	voltage_A 7216.878+0.0j;
	voltage_B -3608.439-6250.000j;
	voltage_C -3608.439+6250.000j;
}

object node:1203 {
	name R1-12-47-1_node_37;
	phases "AN";
	nominal_voltage 7216.878;
	voltage_A 7216.878+0.0j;
}

object node:1207 {
	name R1-12-47-1_node_38;
	phases "ABCN";
	nominal_voltage 7216.878;
	voltage_A 7216.878+0.0j;
	voltage_B -3608.439-6250.000j;
	voltage_C -3608.439+6250.000j;
}

object node:1206 {
	name R1-12-47-1_node_39;
	phases "CN";
	nominal_voltage 7216.878;
	voltage_C -3608.439+6250.000j;
}

object node:1208 {
	name R1-12-47-1_node_40;
	phases "CN";
	nominal_voltage 7216.878;
	voltage_C -3608.439+6250.000j;
}

object node:1212 {
	name R1-12-47-1_node_41;
	phases "AN";
	nominal_voltage 7216.878;
	voltage_A 7216.878+0.0j;
}

object node:1211 {
	name R1-12-47-1_node_42;
	phases "BN";
	nominal_voltage 7216.878;
	voltage_B -3608.439-6250.000j;
}

object node:1214 {
	name R1-12-47-1_node_43;
	phases "ABCN";
	nominal_voltage 7216.878;
	voltage_A 7216.878+0.0j;
	voltage_B -3608.439-6250.000j;
	voltage_C -3608.439+6250.000j;
}

object node:1215 {
	name R1-12-47-1_node_44;
	phases "CN";
	nominal_voltage 7216.878;
	voltage_C -3608.439+6250.000j;
}

object node:1216 {
	name R1-12-47-1_node_45;
	phases "ABCN";
	nominal_voltage 7216.878;
	voltage_A 7216.878+0.0j;
	voltage_B -3608.439-6250.000j;
	voltage_C -3608.439+6250.000j;
}

object node:1217 {
	name R1-12-47-1_node_46;
	phases "ABCN";
	nominal_voltage 7216.878;
	voltage_A 7216.878+0.0j;
	voltage_B -3608.439-6250.000j;
	voltage_C -3608.439+6250.000j;
}

object node:1219 {
	name R1-12-47-1_node_47;
	phases "BN";
	nominal_voltage 7216.878;
	voltage_B -3608.439-6250.000j;
}

object node:1220 {
	name R1-12-47-1_node_48;
	phases "CN";
	nominal_voltage 7216.878;
	voltage_C -3608.439+6250.000j;
}

object node:1221 {
	name R1-12-47-1_node_49;
	phases "CN";
	nominal_voltage 7216.878;
	voltage_C -3608.439+6250.000j;
}

object node:1222 {
	name R1-12-47-1_node_50;
	phases "AN";
	nominal_voltage 7216.878;
	voltage_A 7216.878+0.0j;
}

object node:1224 {
	name R1-12-47-1_node_51;
	phases "CN";
	nominal_voltage 7216.878;
	voltage_C -3608.439+6250.000j;
}

object node:1226 {
	name R1-12-47-1_node_52;
	phases "AN";
	nominal_voltage 7216.878;
	voltage_A 7216.878+0.0j;
}

object node:1228 {
	name R1-12-47-1_node_53;
	phases "ABCN";
	nominal_voltage 7216.878;
	voltage_A 7216.878+0.0j;
	voltage_B -3608.439-6250.000j;
	voltage_C -3608.439+6250.000j;
}

object node:1229 {
	name R1-12-47-1_node_54;
	phases "AN";
	nominal_voltage 7216.878;
	voltage_A 7216.878+0.0j;
}

object node:1230 {
	name R1-12-47-1_node_55;
	phases "BN";
	nominal_voltage 7216.878;
	voltage_B -3608.439-6250.000j;
}

object node:1231 {
	name R1-12-47-1_node_56;
	phases "BN";
	nominal_voltage 7216.878;
	voltage_B -3608.439-6250.000j;
}

object node:1232 {
	name R1-12-47-1_node_57;
	phases "ABCN";
	nominal_voltage 7216.878;
	voltage_A 7216.878+0.0j;
	voltage_B -3608.439-6250.000j;
	voltage_C -3608.439+6250.000j;
}

object node:1234 {
	name R1-12-47-1_node_58;
	phases "BN";
	nominal_voltage 7216.878;
	voltage_B -3608.439-6250.000j;
}

object node:1237 {
	name R1-12-47-1_node_59;
	phases "CN";
	nominal_voltage 7216.878;
	voltage_C -3608.439+6250.000j;
}

object node:1238 {
	name R1-12-47-1_node_60;
	phases "AN";
	nominal_voltage 7216.878;
	voltage_A 7216.878+0.0j;
}

object node:1239 {
	name R1-12-47-1_node_61;
	phases "CN";
	nominal_voltage 7216.878;
	voltage_C -3608.439+6250.000j;
}

object node:1240 {
	name R1-12-47-1_node_62;
	phases "AN";
	nominal_voltage 7216.878;
	voltage_A 7216.878+0.0j;
}

object node:1241 {
	name R1-12-47-1_node_63;
	phases "AN";
	nominal_voltage 7216.878;
	voltage_A 7216.878+0.0j;
}

object node:1243 {
	name R1-12-47-1_node_64;
	phases "ABCN";
	nominal_voltage 7216.878;
	voltage_A 7216.878+0.0j;
	voltage_B -3608.439-6250.000j;
	voltage_C -3608.439+6250.000j;
}

object node:1244 {
	name R1-12-47-1_node_65;
	phases "BN";
	nominal_voltage 7216.878;
	voltage_B -3608.439-6250.000j;
}

object node:1247 {
	name R1-12-47-1_node_66;
	phases "AN";
	nominal_voltage 7216.878;
	voltage_A 7216.878+0.0j;
}

object node:1248 {
	name R1-12-47-1_node_67;
	phases "CN";
	nominal_voltage 7216.878;
	voltage_C -3608.439+6250.000j;
}

object node:1249 {
	name R1-12-47-1_node_68;
	phases "ABCN";
	nominal_voltage 7216.878;
	voltage_A 7216.878+0.0j;
	voltage_B -3608.439-6250.000j;
	voltage_C -3608.439+6250.000j;
}

object node:1250 {
	name R1-12-47-1_node_69;
	phases "ABCN";
	nominal_voltage 7216.878;
	voltage_A 7216.878+0.0j;
	voltage_B -3608.439-6250.000j;
	voltage_C -3608.439+6250.000j;
}

object node:1253 {
	name R1-12-47-1_node_70;
	phases "CN";
	nominal_voltage 7216.878;
	voltage_C -3608.439+6250.000j;
}

object node:1252 {
	name R1-12-47-1_node_71;
	phases "ABCN";
	nominal_voltage 7216.878;
	voltage_A 7216.878+0.0j;
	voltage_B -3608.439-6250.000j;
	voltage_C -3608.439+6250.000j;
}

object node:1256 {
	name R1-12-47-1_node_72;
	phases "ABCN";
	nominal_voltage 7216.878;
	voltage_A 7216.878+0.0j;
	voltage_B -3608.439-6250.000j;
	voltage_C -3608.439+6250.000j;
}

object node:1255 {
	name R1-12-47-1_node_73;
	phases "ABCN";
	nominal_voltage 7216.878;
	voltage_A 7216.878+0.0j;
	voltage_B -3608.439-6250.000j;
	voltage_C -3608.439+6250.000j;
}

object node:1254 {
	name R1-12-47-1_node_74;
	phases "ABCN";
	nominal_voltage 7216.878;
	voltage_A 7216.878+0.0j;
	voltage_B -3608.439-6250.000j;
	voltage_C -3608.439+6250.000j;
}

object node:1257 {
	name R1-12-47-1_node_75;
	phases "ABCN";
	nominal_voltage 7216.878;
	voltage_A 7216.878+0.0j;
	voltage_B -3608.439-6250.000j;
	voltage_C -3608.439+6250.000j;
}

object node:1259 {
	name R1-12-47-1_node_76;
	phases "CN";
	nominal_voltage 7216.878;
	voltage_C -3608.439+6250.000j;
}

object node:1260 {
	name R1-12-47-1_node_77;
	phases "CN";
	nominal_voltage 7216.878;
	voltage_C -3608.439+6250.000j;
}

object node:1261 {
	name R1-12-47-1_node_78;
	phases "AN";
	nominal_voltage 7216.878;
	voltage_A 7216.878+0.0j;
}

object node:1262 {
	name R1-12-47-1_node_79;
	phases "AN";
	nominal_voltage 7216.878;
	voltage_A 7216.878+0.0j;
}

object node:1265 {
	name R1-12-47-1_node_80;
	phases "BN";
	nominal_voltage 7216.878;
	voltage_B -3608.439-6250.000j;
}

object node:1264 {
	name R1-12-47-1_node_81;
	phases "CN";
	nominal_voltage 7216.878;
	voltage_C -3608.439+6250.000j;
}

object node:1268 {
	name R1-12-47-1_node_82;
	phases "AN";
	nominal_voltage 7216.878;
	voltage_A 7216.878+0.0j;
}

object node:1272 {
	name R1-12-47-1_node_83;
	phases "AN";
	nominal_voltage 7216.878;
	voltage_A 7216.878+0.0j;
}

object node:1271 {
	name R1-12-47-1_node_84;
	phases "AN";
	nominal_voltage 7216.878;
	voltage_A 7216.878+0.0j;
}

object node:1276 {
	name R1-12-47-1_node_85;
	phases "ABCN";
	nominal_voltage 7216.878;
	voltage_A 7216.878+0.0j;
	voltage_B -3608.439-6250.000j;
	voltage_C -3608.439+6250.000j;
}

object node:1275 {
	name R1-12-47-1_node_86;
	phases "CN";
	nominal_voltage 7216.878;
	voltage_C -3608.439+6250.000j;
}

object node:1280 {
	name R1-12-47-1_node_87;
	phases "ABCN";
	nominal_voltage 7216.878;
	voltage_A 7216.878+0.0j;
	voltage_B -3608.439-6250.000j;
	voltage_C -3608.439+6250.000j;
}

object node:1279 {
	name R1-12-47-1_node_88;
	phases "CN";
	nominal_voltage 7216.878;
	voltage_C -3608.439+6250.000j;
}

object node:1282 {
	name R1-12-47-1_node_89;
	phases "AN";
	nominal_voltage 7216.878;
	voltage_A 7216.878+0.0j;
}

object node:1281 {
	name R1-12-47-1_node_90;
	phases "ABCN";
	nominal_voltage 7216.878;
	voltage_A 7216.878+0.0j;
	voltage_B -3608.439-6250.000j;
	voltage_C -3608.439+6250.000j;
}

object node:1284 {
	name R1-12-47-1_node_91;
	phases "AN";
	nominal_voltage 7216.878;
	voltage_A 7216.878+0.0j;
}

object node:1287 {
	name R1-12-47-1_node_92;
	phases "AN";
	nominal_voltage 7216.878;
	voltage_A 7216.878+0.0j;
}

object node:1289 {
	name R1-12-47-1_node_93;
	phases "BN";
	nominal_voltage 7216.878;
	voltage_B -3608.439-6250.000j;
}

object node:1288 {
	name R1-12-47-1_node_94;
	phases "ABCN";
	nominal_voltage 7216.878;
	voltage_A 7216.878+0.0j;
	voltage_B -3608.439-6250.000j;
	voltage_C -3608.439+6250.000j;
}

object node:1290 {
	name R1-12-47-1_node_95;
	phases "AN";
	nominal_voltage 7216.878;
	voltage_A 7216.878+0.0j;
}

object node:1292 {
	name R1-12-47-1_node_96;
	phases "CN";
	nominal_voltage 7216.878;
	voltage_C -3608.439+6250.000j;
}

object node:1294 {
	name R1-12-47-1_node_97;
	phases "BN";
	nominal_voltage 7216.878;
	voltage_B -3608.439-6250.000j;
}

object node:1299 {
	name R1-12-47-1_node_98;
	phases "CN";
	nominal_voltage 7216.878;
	voltage_C -3608.439+6250.000j;
}

object node:1300 {
	name R1-12-47-1_node_99;
	phases "AN";
	nominal_voltage 7216.878;
	voltage_A 7216.878+0.0j;
}

object node:1302 {
	name R1-12-47-1_node_100;
	phases "AN";
	nominal_voltage 7216.878;
	voltage_A 7216.878+0.0j;
}

object node:1304 {
	name R1-12-47-1_node_101;
	phases "ABCN";
	nominal_voltage 7216.878;
	voltage_A 7216.878+0.0j;
	voltage_B -3608.439-6250.000j;
	voltage_C -3608.439+6250.000j;
}

object node:1306 {
	name R1-12-47-1_node_102;
	phases "CN";
	nominal_voltage 7216.878;
	voltage_C -3608.439+6250.000j;
}

object node:1307 {
	name R1-12-47-1_node_103;
	phases "AN";
	nominal_voltage 7216.878;
	voltage_A 7216.878+0.0j;
}

object node:1308 {
	name R1-12-47-1_node_104;
	phases "CN";
	nominal_voltage 7216.878;
	voltage_C -3608.439+6250.000j;
}

object node:1309 {
	name R1-12-47-1_node_105;
	phases "ABCN";
	nominal_voltage 7216.878;
	voltage_A 7216.878+0.0j;
	voltage_B -3608.439-6250.000j;
	voltage_C -3608.439+6250.000j;
}

object node:1311 {
	name R1-12-47-1_node_106;
	phases "ABCN";
	nominal_voltage 7216.878;
	voltage_A 7216.878+0.0j;
	voltage_B -3608.439-6250.000j;
	voltage_C -3608.439+6250.000j;
}

object node:1312 {
	name R1-12-47-1_node_107;
	phases "ABCN";
	nominal_voltage 7216.878;
	voltage_A 7216.878+0.0j;
	voltage_B -3608.439-6250.000j;
	voltage_C -3608.439+6250.000j;
}

object node:1313 {
	name R1-12-47-1_node_108;
	phases "ABCN";
	nominal_voltage 7216.878;
	voltage_A 7216.878+0.0j;
	voltage_B -3608.439-6250.000j;
	voltage_C -3608.439+6250.000j;
}

object node:1314 {
	name R1-12-47-1_node_109;
	phases "AN";
	nominal_voltage 7216.878;
	voltage_A 7216.878+0.0j;
}

object node:1316 {
	name R1-12-47-1_node_110;
	phases "AN";
	nominal_voltage 7216.878;
	voltage_A 7216.878+0.0j;
}

object node:1317 {
	name R1-12-47-1_node_111;
	phases "ABCN";
	nominal_voltage 7216.878;
	voltage_A 7216.878+0.0j;
	voltage_B -3608.439-6250.000j;
	voltage_C -3608.439+6250.000j;
}

object node:1319 {
	name R1-12-47-1_node_112;
	phases "CN";
	nominal_voltage 7216.878;
	voltage_C -3608.439+6250.000j;
}

object node:1321 {
	name R1-12-47-1_node_113;
	phases "ABCN";
	nominal_voltage 7216.878;
	voltage_A 7216.878+0.0j;
	voltage_B -3608.439-6250.000j;
	voltage_C -3608.439+6250.000j;
}

object node:1322 {
	name R1-12-47-1_node_114;
	phases "AN";
	nominal_voltage 7216.878;
	voltage_A 7216.878+0.0j;
}

object node:1323 {
	name R1-12-47-1_node_115;
	phases "CN";
	nominal_voltage 7216.878;
	voltage_C -3608.439+6250.000j;
}

object node:1325 {
	name R1-12-47-1_node_116;
	phases "AN";
	nominal_voltage 7216.878;
	voltage_A 7216.878+0.0j;
}

object node:1327 {
	name R1-12-47-1_node_117;
	phases "AN";
	nominal_voltage 7216.878;
	voltage_A 7216.878+0.0j;
}

object node:1328 {
	name R1-12-47-1_node_118;
	phases "AN";
	nominal_voltage 7216.878;
	voltage_A 7216.878+0.0j;
}

object node:1331 {
	name R1-12-47-1_node_119;
	phases "AN";
	nominal_voltage 7216.878;
	voltage_A 7216.878+0.0j;
}

object node:1334 {
	name R1-12-47-1_node_120;
	phases "BN";
	nominal_voltage 7216.878;
	voltage_B -3608.439-6250.000j;
}

object node:1336 {
	name R1-12-47-1_node_121;
	phases "CN";
	nominal_voltage 7216.878;
	voltage_C -3608.439+6250.000j;
}

object node:1338 {
	name R1-12-47-1_node_122;
	phases "ABCN";
	nominal_voltage 7216.878;
	voltage_A 7216.878+0.0j;
	voltage_B -3608.439-6250.000j;
	voltage_C -3608.439+6250.000j;
}

object node:1339 {
	name R1-12-47-1_node_123;
	phases "CN";
	nominal_voltage 7216.878;
	voltage_C -3608.439+6250.000j;
}

object node:1340 {
	name R1-12-47-1_node_124;
	phases "ABCN";
	nominal_voltage 7216.878;
	voltage_A 7216.878+0.0j;
	voltage_B -3608.439-6250.000j;
	voltage_C -3608.439+6250.000j;
}

object node:1342 {
	name R1-12-47-1_node_125;
	phases "BN";
	nominal_voltage 7216.878;
	voltage_B -3608.439-6250.000j;
}

object node:1344 {
	name R1-12-47-1_node_126;
	phases "AN";
	nominal_voltage 7216.878;
	voltage_A 7216.878+0.0j;
}

object node:1346 {
	name R1-12-47-1_node_127;
	phases "ABCN";
	nominal_voltage 7216.878;
	voltage_A 7216.878+0.0j;
	voltage_B -3608.439-6250.000j;
	voltage_C -3608.439+6250.000j;
}

object node:1347 {
	name R1-12-47-1_node_128;
	phases "ABCN";
	nominal_voltage 7216.878;
	voltage_A 7216.878+0.0j;
	voltage_B -3608.439-6250.000j;
	voltage_C -3608.439+6250.000j;
}

object node:1349 {
	name R1-12-47-1_node_129;
	phases "CN";
	nominal_voltage 7216.878;
	voltage_C -3608.439+6250.000j;
}

object node:1351 {
	name R1-12-47-1_node_130;
	phases "ABCN";
	nominal_voltage 7216.878;
	voltage_A 7216.878+0.0j;
	voltage_B -3608.439-6250.000j;
	voltage_C -3608.439+6250.000j;
}

object node:1352 {
	name R1-12-47-1_node_131;
	phases "CN";
	nominal_voltage 7216.878;
	voltage_C -3608.439+6250.000j;
}

object node:1353 {
	name R1-12-47-1_node_132;
	phases "CN";
	nominal_voltage 7216.878;
	voltage_C -3608.439+6250.000j;
}

object node:1357 {
	name R1-12-47-1_node_133;
	phases "AN";
	nominal_voltage 7216.878;
	voltage_A 7216.878+0.0j;
}

object node:1356 {
	name R1-12-47-1_node_134;
	phases "CN";
	nominal_voltage 7216.878;
	voltage_C -3608.439+6250.000j;
}

object node:1358 {
	name R1-12-47-1_node_135;
	phases "ABCN";
	nominal_voltage 7216.878;
	voltage_A 7216.878+0.0j;
	voltage_B -3608.439-6250.000j;
	voltage_C -3608.439+6250.000j;
}

object node:1359 {
	name R1-12-47-1_node_136;
	phases "ABCN";
	nominal_voltage 7216.878;
	voltage_A 7216.878+0.0j;
	voltage_B -3608.439-6250.000j;
	voltage_C -3608.439+6250.000j;
}

object node:1360 {
	name R1-12-47-1_node_137;
	phases "ABCN";
	nominal_voltage 7216.878;
	voltage_A 7216.878+0.0j;
	voltage_B -3608.439-6250.000j;
	voltage_C -3608.439+6250.000j;
}

object node:1363 {
	name R1-12-47-1_node_138;
	phases "ABCN";
	nominal_voltage 7216.878;
	voltage_A 7216.878+0.0j;
	voltage_B -3608.439-6250.000j;
	voltage_C -3608.439+6250.000j;
}

object node:1362 {
	name R1-12-47-1_node_139;
	phases "BN";
	nominal_voltage 7216.878;
	voltage_B -3608.439-6250.000j;
}

object node:1361 {
	name R1-12-47-1_node_140;
	phases "AN";
	nominal_voltage 7216.878;
	voltage_A 7216.878+0.0j;
}

object node:1364 {
	name R1-12-47-1_node_141;
	phases "AN";
	nominal_voltage 7216.878;
	voltage_A 7216.878+0.0j;
}

object node:1366 {
	name R1-12-47-1_node_142;
	phases "BN";
	nominal_voltage 7216.878;
	voltage_B -3608.439-6250.000j;
}

object node:1369 {
	name R1-12-47-1_node_143;
	phases "AN";
	nominal_voltage 7216.878;
	voltage_A 7216.878+0.0j;
}

object node:1371 {
	name R1-12-47-1_node_144;
	phases "AN";
	nominal_voltage 7216.878;
	voltage_A 7216.878+0.0j;
}

object node:1370 {
	name R1-12-47-1_node_145;
	phases "AN";
	nominal_voltage 7216.878;
	voltage_A 7216.878+0.0j;
}

object node:1372 {
	name R1-12-47-1_node_146;
	phases "BN";
	nominal_voltage 7216.878;
	voltage_B -3608.439-6250.000j;
}

object node:1376 {
	name R1-12-47-1_node_147;
	phases "AN";
	nominal_voltage 7216.878;
	voltage_A 7216.878+0.0j;
}

object node:1375 {
	name R1-12-47-1_node_148;
	phases "BN";
	nominal_voltage 7216.878;
	voltage_B -3608.439-6250.000j;
}

object node:1380 {
	name R1-12-47-1_node_149;
	phases "AN";
	nominal_voltage 7216.878;
	voltage_A 7216.878+0.0j;
}

object node:1379 {
	name R1-12-47-1_node_150;
	phases "ABCN";
	nominal_voltage 7216.878;
	voltage_A 7216.878+0.0j;
	voltage_B -3608.439-6250.000j;
	voltage_C -3608.439+6250.000j;
}

object node:1383 {
	name R1-12-47-1_node_151;
	phases "AN";
	nominal_voltage 7216.878;
	voltage_A 7216.878+0.0j;
}

object node:1384 {
	name R1-12-47-1_node_152;
	phases "AN";
	nominal_voltage 7216.878;
	voltage_A 7216.878+0.0j;
}

object node:1385 {
	name R1-12-47-1_node_153;
	phases "AN";
	nominal_voltage 7216.878;
	voltage_A 7216.878+0.0j;
}

object node:1389 {
	name R1-12-47-1_node_154;
	phases "AN";
	nominal_voltage 7216.878;
	voltage_A 7216.878+0.0j;
}

object node:1392 {
	name R1-12-47-1_node_155;
	phases "AN";
	nominal_voltage 7216.878;
	voltage_A 7216.878+0.0j;
}

object node:1393 {
	name R1-12-47-1_node_156;
	phases "ABCN";
	nominal_voltage 7216.878;
	voltage_A 7216.878+0.0j;
	voltage_B -3608.439-6250.000j;
	voltage_C -3608.439+6250.000j;
}

object node:1394 {
	name R1-12-47-1_node_157;
	phases "BN";
	nominal_voltage 7216.878;
	voltage_B -3608.439-6250.000j;
}

object node:1395 {
	name R1-12-47-1_node_158;
	phases "ABCN";
	nominal_voltage 7216.878;
	voltage_A 7216.878+0.0j;
	voltage_B -3608.439-6250.000j;
	voltage_C -3608.439+6250.000j;
}

object node:1396 {
	name R1-12-47-1_node_159;
	phases "AN";
	nominal_voltage 7216.878;
	voltage_A 7216.878+0.0j;
}

object node:1397 {
	name R1-12-47-1_node_160;
	phases "ABCN";
	nominal_voltage 7216.878;
	voltage_A 7216.878+0.0j;
	voltage_B -3608.439-6250.000j;
	voltage_C -3608.439+6250.000j;
}

object node:1399 {
	name R1-12-47-1_node_161;
	phases "AN";
	nominal_voltage 7216.878;
	voltage_A 7216.878+0.0j;
}

object node:1398 {
	name R1-12-47-1_node_162;
	phases "AN";
	nominal_voltage 7216.878;
	voltage_A 7216.878+0.0j;
}

object node:1402 {
	name R1-12-47-1_node_163;
	phases "ABCN";
	nominal_voltage 7216.878;
	voltage_A 7216.878+0.0j;
	voltage_B -3608.439-6250.000j;
	voltage_C -3608.439+6250.000j;
}

object node:1405 {
	name R1-12-47-1_node_164;
	phases "CN";
	nominal_voltage 7216.878;
	voltage_C -3608.439+6250.000j;
}

object node:1407 {
	name R1-12-47-1_node_165;
	phases "AN";
	nominal_voltage 7216.878;
	voltage_A 7216.878+0.0j;
}

object node:1410 {
	name R1-12-47-1_node_166;
	phases "AN";
	nominal_voltage 7216.878;
	voltage_A 7216.878+0.0j;
}

object node:1409 {
	name R1-12-47-1_node_167;
	phases "ABCN";
	nominal_voltage 7216.878;
	voltage_A 7216.878+0.0j;
	voltage_B -3608.439-6250.000j;
	voltage_C -3608.439+6250.000j;
}

object node:1411 {
	name R1-12-47-1_node_168;
	phases "CN";
	nominal_voltage 7216.878;
	voltage_C -3608.439+6250.000j;
}

object node:1413 {
	name R1-12-47-1_node_169;
	phases "CN";
	nominal_voltage 7216.878;
	voltage_C -3608.439+6250.000j;
}

object node:1415 {
	name R1-12-47-1_node_170;
	phases "AN";
	nominal_voltage 7216.878;
	voltage_A 7216.878+0.0j;
}

object node:1414 {
	name R1-12-47-1_node_171;
	phases "AN";
	nominal_voltage 7216.878;
	voltage_A 7216.878+0.0j;
}

object node:1418 {
	name R1-12-47-1_node_172;
	phases "ABCN";
	nominal_voltage 7216.878;
	voltage_A 7216.878+0.0j;
	voltage_B -3608.439-6250.000j;
	voltage_C -3608.439+6250.000j;
}

object node:1420 {
	name R1-12-47-1_node_173;
	phases "ABCN";
	nominal_voltage 7216.878;
	voltage_A 7216.878+0.0j;
	voltage_B -3608.439-6250.000j;
	voltage_C -3608.439+6250.000j;
}

object node:1421 {
	name R1-12-47-1_node_174;
	phases "AN";
	nominal_voltage 7216.878;
	voltage_A 7216.878+0.0j;
}

object node:1422 {
	name R1-12-47-1_node_175;
	phases "AN";
	nominal_voltage 7216.878;
	voltage_A 7216.878+0.0j;
}

object node:1423 {
	name R1-12-47-1_node_176;
	phases "ABCN";
	nominal_voltage 7216.878;
	voltage_A 7216.878+0.0j;
	voltage_B -3608.439-6250.000j;
	voltage_C -3608.439+6250.000j;
}

object node:1424 {
	name R1-12-47-1_node_177;
	phases "CN";
	nominal_voltage 7216.878;
	voltage_C -3608.439+6250.000j;
}

object node:1425 {
	name R1-12-47-1_node_178;
	phases "BN";
	nominal_voltage 7216.878;
	voltage_B -3608.439-6250.000j;
}

object node:1426 {
	name R1-12-47-1_node_179;
	phases "ABCN";
	nominal_voltage 7216.878;
	voltage_A 7216.878+0.0j;
	voltage_B -3608.439-6250.000j;
	voltage_C -3608.439+6250.000j;
}

object node:1427 {
	name R1-12-47-1_node_180;
	phases "ABCN";
	nominal_voltage 7216.878;
	voltage_A 7216.878+0.0j;
	voltage_B -3608.439-6250.000j;
	voltage_C -3608.439+6250.000j;
}

object node:1428 {
	name R1-12-47-1_node_181;
	phases "AN";
	nominal_voltage 7216.878;
	voltage_A 7216.878+0.0j;
}

object node:1429 {
	name R1-12-47-1_node_182;
	phases "ABCN";
	nominal_voltage 7216.878;
	voltage_A 7216.878+0.0j;
	voltage_B -3608.439-6250.000j;
	voltage_C -3608.439+6250.000j;
}

object node:1433 {
	name R1-12-47-1_node_183;
	phases "ABCN";
	nominal_voltage 7216.878;
	voltage_A 7216.878+0.0j;
	voltage_B -3608.439-6250.000j;
	voltage_C -3608.439+6250.000j;
}

object node:1434 {
	name R1-12-47-1_node_184;
	phases "ABCN";
	nominal_voltage 7216.878;
	voltage_A 7216.878+0.0j;
	voltage_B -3608.439-6250.000j;
	voltage_C -3608.439+6250.000j;
}

object node:1435 {
	name R1-12-47-1_node_185;
	phases "AN";
	nominal_voltage 7216.878;
	voltage_A 7216.878+0.0j;
}

object node:1436 {
	name R1-12-47-1_node_186;
	phases "AN";
	nominal_voltage 7216.878;
	voltage_A 7216.878+0.0j;
}

object node:1438 {
	name R1-12-47-1_node_187;
	phases "AN";
	nominal_voltage 7216.878;
	voltage_A 7216.878+0.0j;
}

object node:1439 {
	name R1-12-47-1_node_188;
	phases "AN";
	nominal_voltage 7216.878;
	voltage_A 7216.878+0.0j;
}

object node:1441 {
	name R1-12-47-1_node_189;
	phases "AN";
	nominal_voltage 7216.878;
	voltage_A 7216.878+0.0j;
}

object node:1442 {
	name R1-12-47-1_node_190;
	phases "CN";
	nominal_voltage 7216.878;
	voltage_C -3608.439+6250.000j;
}

object node:1443 {
	name R1-12-47-1_node_191;
	phases "CN";
	nominal_voltage 7216.878;
	voltage_C -3608.439+6250.000j;
}

object node:1446 {
	name R1-12-47-1_node_192;
	phases "ABCN";
	nominal_voltage 7216.878;
	voltage_A 7216.878+0.0j;
	voltage_B -3608.439-6250.000j;
	voltage_C -3608.439+6250.000j;
}

object node:1447 {
	name R1-12-47-1_node_193;
	phases "ABCN";
	nominal_voltage 7216.878;
	voltage_A 7216.878+0.0j;
	voltage_B -3608.439-6250.000j;
	voltage_C -3608.439+6250.000j;
}

object node:1450 {
	name R1-12-47-1_node_194;
	phases "AN";
	nominal_voltage 7216.878;
	voltage_A 7216.878+0.0j;
}

object node:1451 {
	name R1-12-47-1_node_195;
	phases "AN";
	nominal_voltage 7216.878;
	voltage_A 7216.878+0.0j;
}

object node:1453 {
	name R1-12-47-1_node_196;
	phases "CN";
	nominal_voltage 7216.878;
	voltage_C -3608.439+6250.000j;
}

object node:1454 {
	name R1-12-47-1_node_197;
	phases "AN";
	nominal_voltage 7216.878;
	voltage_A 7216.878+0.0j;
}

object node:1455 {
	name R1-12-47-1_node_198;
	phases "BN";
	nominal_voltage 7216.878;
	voltage_B -3608.439-6250.000j;
}

object node:1456 {
	name R1-12-47-1_node_199;
	phases "ABCN";
	nominal_voltage 7216.878;
	voltage_A 7216.878+0.0j;
	voltage_B -3608.439-6250.000j;
	voltage_C -3608.439+6250.000j;
}

object node:1457 {
	name R1-12-47-1_node_200;
	phases "ABCN";
	nominal_voltage 7216.878;
	voltage_A 7216.878+0.0j;
	voltage_B -3608.439-6250.000j;
	voltage_C -3608.439+6250.000j;
}

object node:1458 {
	name R1-12-47-1_node_201;
	phases "AN";
	nominal_voltage 7216.878;
	voltage_A 7216.878+0.0j;
}

object node:1459 {
	name R1-12-47-1_node_202;
	phases "ABCN";
	nominal_voltage 7216.878;
	voltage_A 7216.878+0.0j;
	voltage_B -3608.439-6250.000j;
	voltage_C -3608.439+6250.000j;
}

object node:1460 {
	name R1-12-47-1_node_203;
	phases "AN";
	nominal_voltage 7216.878;
	voltage_A 7216.878+0.0j;
}

object node:1461 {
	name R1-12-47-1_node_204;
	phases "CN";
	nominal_voltage 7216.878;
	voltage_C -3608.439+6250.000j;
}

object node:1462 {
	name R1-12-47-1_node_205;
	phases "AN";
	nominal_voltage 7216.878;
	voltage_A 7216.878+0.0j;
}

object node:1463 {
	name R1-12-47-1_node_206;
	phases "AN";
	nominal_voltage 7216.878;
	voltage_A 7216.878+0.0j;
}

object node:1464 {
	name R1-12-47-1_node_207;
	phases "ABCN";
	nominal_voltage 7216.878;
	voltage_A 7216.878+0.0j;
	voltage_B -3608.439-6250.000j;
	voltage_C -3608.439+6250.000j;
}

object node:1465 {
	name R1-12-47-1_node_208;
	phases "AN";
	nominal_voltage 7216.878;
	voltage_A 7216.878+0.0j;
}

object node:1466 {
	name R1-12-47-1_node_209;
	phases "AN";
	nominal_voltage 7216.878;
	voltage_A 7216.878+0.0j;
}

object node:1470 {
	name R1-12-47-1_node_210;
	phases "CN";
	nominal_voltage 7216.878;
	voltage_C -3608.439+6250.000j;
}

object node:1474 {
	name R1-12-47-1_node_211;
	phases "ABCN";
	nominal_voltage 7216.878;
	voltage_A 7216.878+0.0j;
	voltage_B -3608.439-6250.000j;
	voltage_C -3608.439+6250.000j;
}

object node:1476 {
	name R1-12-47-1_node_212;
	phases "AN";
	nominal_voltage 7216.878;
	voltage_A 7216.878+0.0j;
}

object node:1478 {
	name R1-12-47-1_node_213;
	phases "AN";
	nominal_voltage 7216.878;
	voltage_A 7216.878+0.0j;
}

object node:1479 {
	name R1-12-47-1_node_214;
	phases "ABCN";
	nominal_voltage 7216.878;
	voltage_A 7216.878+0.0j;
	voltage_B -3608.439-6250.000j;
	voltage_C -3608.439+6250.000j;
}

object node:1480 {
	name R1-12-47-1_node_215;
	phases "ABCN";
	nominal_voltage 7216.878;
	voltage_A 7216.878+0.0j;
	voltage_B -3608.439-6250.000j;
	voltage_C -3608.439+6250.000j;
}

object node:1482 {
	name R1-12-47-1_node_216;
	phases "AN";
	nominal_voltage 7216.878;
	voltage_A 7216.878+0.0j;
}

object node:1483 {
	name R1-12-47-1_node_217;
	phases "AN";
	nominal_voltage 7216.878;
	voltage_A 7216.878+0.0j;
}

object node:1485 {
	name R1-12-47-1_node_218;
	phases "AN";
	nominal_voltage 7216.878;
	voltage_A 7216.878+0.0j;
}

object node:1486 {
	name R1-12-47-1_node_219;
	phases "AN";
	nominal_voltage 7216.878;
	voltage_A 7216.878+0.0j;
}

object node:1487 {
	name R1-12-47-1_node_220;
	phases "ABCN";
	nominal_voltage 7216.878;
	voltage_A 7216.878+0.0j;
	voltage_B -3608.439-6250.000j;
	voltage_C -3608.439+6250.000j;
}

object node:1488 {
	name R1-12-47-1_node_221;
	phases "ABCN";
	nominal_voltage 7216.878;
	voltage_A 7216.878+0.0j;
	voltage_B -3608.439-6250.000j;
	voltage_C -3608.439+6250.000j;
}

object node:1489 {
	name R1-12-47-1_node_222;
	phases "BN";
	nominal_voltage 7216.878;
	voltage_B -3608.439-6250.000j;
}

object node:1490 {
	name R1-12-47-1_node_223;
	phases "BN";
	nominal_voltage 7216.878;
	voltage_B -3608.439-6250.000j;
}

object node:1491 {
	name R1-12-47-1_node_224;
	phases "BN";
	nominal_voltage 7216.878;
	voltage_B -3608.439-6250.000j;
}

object node:1493 {
	name R1-12-47-1_node_225;
	phases "CN";
	nominal_voltage 7216.878;
	voltage_C -3608.439+6250.000j;
}

object node:1494 {
	name R1-12-47-1_node_226;
	phases "CN";
	nominal_voltage 7216.878;
	voltage_C -3608.439+6250.000j;
}

object node:1495 {
	name R1-12-47-1_node_227;
	phases "AN";
	nominal_voltage 7216.878;
	voltage_A 7216.878+0.0j;
}

object node:1498 {
	name R1-12-47-1_node_228;
	phases "CN";
	nominal_voltage 7216.878;
	voltage_C -3608.439+6250.000j;
}

object node:1499 {
	name R1-12-47-1_node_229;
	phases "BN";
	nominal_voltage 7216.878;
	voltage_B -3608.439-6250.000j;
}

object node:1502 {
	name R1-12-47-1_node_230;
	phases "AN";
	nominal_voltage 7216.878;
	voltage_A 7216.878+0.0j;
}

object node:1503 {
	name R1-12-47-1_node_231;
	phases "AN";
	nominal_voltage 7216.878;
	voltage_A 7216.878+0.0j;
}

object node:1504 {
	name R1-12-47-1_node_232;
	phases "BN";
	nominal_voltage 7216.878;
	voltage_B -3608.439-6250.000j;
}

object node:1505 {
	name R1-12-47-1_node_233;
	phases "CN";
	nominal_voltage 7216.878;
	voltage_C -3608.439+6250.000j;
}

object node:1509 {
	name R1-12-47-1_node_234;
	phases "ABCN";
	nominal_voltage 7216.878;
	voltage_A 7216.878+0.0j;
	voltage_B -3608.439-6250.000j;
	voltage_C -3608.439+6250.000j;
}

object node:1511 {
	name R1-12-47-1_node_235;
	phases "AN";
	nominal_voltage 7216.878;
	voltage_A 7216.878+0.0j;
}

object node:1517 {
	name R1-12-47-1_node_236;
	phases "ABCN";
	nominal_voltage 7216.878;
	voltage_A 7216.878+0.0j;
	voltage_B -3608.439-6250.000j;
	voltage_C -3608.439+6250.000j;
}

object node:1518 {
	name R1-12-47-1_node_237;
	phases "BN";
	nominal_voltage 7216.878;
	voltage_B -3608.439-6250.000j;
}

object node:1522 {
	name R1-12-47-1_node_238;
	phases "ABCN";
	nominal_voltage 7216.878;
	voltage_A 7216.878+0.0j;
	voltage_B -3608.439-6250.000j;
	voltage_C -3608.439+6250.000j;
}

object node:1524 {
	name R1-12-47-1_node_239;
	phases "AN";
	nominal_voltage 7216.878;
	voltage_A 7216.878+0.0j;
}

object node:1525 {
	name R1-12-47-1_node_240;
	phases "ABCN";
	nominal_voltage 7216.878;
	voltage_A 7216.878+0.0j;
	voltage_B -3608.439-6250.000j;
	voltage_C -3608.439+6250.000j;
}

object node:1526 {
	name R1-12-47-1_node_241;
	phases "BN";
	nominal_voltage 7216.878;
	voltage_B -3608.439-6250.000j;
}

object node:1527 {
	name R1-12-47-1_node_242;
	phases "AN";
	nominal_voltage 7216.878;
	voltage_A 7216.878+0.0j;
}

object node:1528 {
	name R1-12-47-1_node_243;
	phases "AN";
	nominal_voltage 7216.878;
	voltage_A 7216.878+0.0j;
}

object node:1530 {
	name R1-12-47-1_node_244;
	phases "AN";
	nominal_voltage 7216.878;
	voltage_A 7216.878+0.0j;
}

object node:1535 {
	name R1-12-47-1_node_245;
	phases "ABCN";
	nominal_voltage 7216.878;
	voltage_A 7216.878+0.0j;
	voltage_B -3608.439-6250.000j;
	voltage_C -3608.439+6250.000j;
}

object node:1536 {
	name R1-12-47-1_node_246;
	phases "CN";
	nominal_voltage 7216.878;
	voltage_C -3608.439+6250.000j;
}

object node:1537 {
	name R1-12-47-1_node_247;
	phases "AN";
	nominal_voltage 7216.878;
	voltage_A 7216.878+0.0j;
}

object node:1538 {
	name R1-12-47-1_node_248;
	phases "ABCN";
	nominal_voltage 7216.878;
	voltage_A 7216.878+0.0j;
	voltage_B -3608.439-6250.000j;
	voltage_C -3608.439+6250.000j;
}

object node:1540 {
	name R1-12-47-1_node_249;
	phases "ABCN";
	nominal_voltage 7216.878;
	voltage_A 7216.878+0.0j;
	voltage_B -3608.439-6250.000j;
	voltage_C -3608.439+6250.000j;
}

object node:1541 {
	name R1-12-47-1_node_250;
	phases "CN";
	nominal_voltage 7216.878;
	voltage_C -3608.439+6250.000j;
}

object node:1546 {
	name R1-12-47-1_node_251;
	phases "CN";
	nominal_voltage 7216.878;
	voltage_C -3608.439+6250.000j;
}

object node:1548 {
	name R1-12-47-1_node_252;
	phases "ABCN";
	nominal_voltage 7216.878;
	voltage_A 7216.878+0.0j;
	voltage_B -3608.439-6250.000j;
	voltage_C -3608.439+6250.000j;
}

object node:1549 {
	name R1-12-47-1_node_253;
	phases "AN";
	nominal_voltage 7216.878;
	voltage_A 7216.878+0.0j;
}

object node:1551 {
	name R1-12-47-1_node_254;
	phases "AN";
	nominal_voltage 7216.878;
	voltage_A 7216.878+0.0j;
}

object node:1552 {
	name R1-12-47-1_node_255;
	phases "AN";
	nominal_voltage 7216.878;
	voltage_A 7216.878+0.0j;
}

object node:1553 {
	name R1-12-47-1_node_256;
	phases "AN";
	nominal_voltage 7216.878;
	voltage_A 7216.878+0.0j;
}

object node:1555 {
	name R1-12-47-1_node_257;
	phases "BN";
	nominal_voltage 7216.878;
	voltage_B -3608.439-6250.000j;
}

object node:1556 {
	name R1-12-47-1_node_258;
	phases "CN";
	nominal_voltage 7216.878;
	voltage_C -3608.439+6250.000j;
}

object node:1557 {
	name R1-12-47-1_node_259;
	phases "AN";
	nominal_voltage 7216.878;
	voltage_A 7216.878+0.0j;
}

object node:1558 {
	name R1-12-47-1_node_260;
	phases "AN";
	nominal_voltage 7216.878;
	voltage_A 7216.878+0.0j;
}

object node:1559 {
	name R1-12-47-1_node_261;
	phases "ABCN";
	nominal_voltage 7216.878;
	voltage_A 7216.878+0.0j;
	voltage_B -3608.439-6250.000j;
	voltage_C -3608.439+6250.000j;
}

object node:1561 {
	name R1-12-47-1_node_262;
	phases "AN";
	nominal_voltage 7216.878;
	voltage_A 7216.878+0.0j;
}

object node:1560 {
	name R1-12-47-1_node_263;
	phases "ABCN";
	nominal_voltage 7216.878;
	voltage_A 7216.878+0.0j;
	voltage_B -3608.439-6250.000j;
	voltage_C -3608.439+6250.000j;
}

object node:1562 {
	name R1-12-47-1_node_264;
	phases "ABCN";
	nominal_voltage 7216.878;
	voltage_A 7216.878+0.0j;
	voltage_B -3608.439-6250.000j;
	voltage_C -3608.439+6250.000j;
}

object node:1563 {
	name R1-12-47-1_node_265;
	phases "CN";
	nominal_voltage 7216.878;
	voltage_C -3608.439+6250.000j;
}

object node:1565 {
	name R1-12-47-1_node_266;
	phases "AN";
	nominal_voltage 7216.878;
	voltage_A 7216.878+0.0j;
}

object node:1564 {
	name R1-12-47-1_node_267;
	phases "CN";
	nominal_voltage 7216.878;
	voltage_C -3608.439+6250.000j;
}

object node:1567 {
	name R1-12-47-1_node_268;
	phases "AN";
	nominal_voltage 7216.878;
	voltage_A 7216.878+0.0j;
}

object node:1566 {
	name R1-12-47-1_node_269;
	phases "ABCN";
	nominal_voltage 7216.878;
	voltage_A 7216.878+0.0j;
	voltage_B -3608.439-6250.000j;
	voltage_C -3608.439+6250.000j;
}

object node:1570 {
	name R1-12-47-1_node_270;
	phases "AN";
	nominal_voltage 7216.878;
	voltage_A 7216.878+0.0j;
}

object node:1569 {
	name R1-12-47-1_node_271;
	phases "AN";
	nominal_voltage 7216.878;
	voltage_A 7216.878+0.0j;
}

object node:1574 {
	name R1-12-47-1_node_272;
	phases "AN";
	nominal_voltage 7216.878;
	voltage_A 7216.878+0.0j;
}

object node:1573 {
	name R1-12-47-1_node_273;
	phases "CN";
	nominal_voltage 7216.878;
	voltage_C -3608.439+6250.000j;
}

object node:1572 {
	name R1-12-47-1_node_274;
	phases "AN";
	nominal_voltage 7216.878;
	voltage_A 7216.878+0.0j;
}

object node:1571 {
	name R1-12-47-1_node_275;
	phases "AN";
	nominal_voltage 7216.878;
	voltage_A 7216.878+0.0j;
}

object node:1575 {
	name R1-12-47-1_node_276;
	phases "BN";
	nominal_voltage 7216.878;
	voltage_B -3608.439-6250.000j;
}

object node:1579 {
	name R1-12-47-1_node_277;
	phases "BN";
	nominal_voltage 7216.878;
	voltage_B -3608.439-6250.000j;
}

object node:1578 {
	name R1-12-47-1_node_278;
	phases "BN";
	nominal_voltage 7216.878;
	voltage_B -3608.439-6250.000j;
}

object node:1577 {
	name R1-12-47-1_node_279;
	phases "ABCN";
	nominal_voltage 7216.878;
	voltage_A 7216.878+0.0j;
	voltage_B -3608.439-6250.000j;
	voltage_C -3608.439+6250.000j;
}

object node:1582 {
	name R1-12-47-1_node_280;
	phases "AN";
	nominal_voltage 7216.878;
	voltage_A 7216.878+0.0j;
}

object node:1581 {
	name R1-12-47-1_node_281;
	phases "CN";
	nominal_voltage 7216.878;
	voltage_C -3608.439+6250.000j;
}

object node:1583 {
	name R1-12-47-1_node_282;
	phases "BN";
	nominal_voltage 7216.878;
	voltage_B -3608.439-6250.000j;
}

object node:1586 {
	name R1-12-47-1_node_283;
	phases "CN";
	nominal_voltage 7216.878;
	voltage_C -3608.439+6250.000j;
}

object node:1589 {
	name R1-12-47-1_node_284;
	phases "AN";
	nominal_voltage 7216.878;
	voltage_A 7216.878+0.0j;
}

object node:1588 {
	name R1-12-47-1_node_285;
	phases "ABCN";
	nominal_voltage 7216.878;
	voltage_A 7216.878+0.0j;
...